test/data/dist/ShortCircuitCases/ieee123_Curr_Elem.Txt

CIRCUIT ELEMENT CURRENTS

(Currents into element from indicated bus)

Power Delivery Elements

  Bus     Phase    Magnitude, A     Angle      (Real)   +j  (Imag)

ELEMENT = "Vsource.SOURCE"
SOURCEBUS     1           367.72 /_  108.7 =    -118.17 +j    348.22
SOURCEBUS     2            352.8 /_  -12.6 =     344.31 +j   -76.901
SOURCEBUS     3            353.2 /_ -129.8 =    -226.14 +j   -271.32
------------
SOURCEBUS     0           367.72 /_  -71.3 =     118.17 +j   -348.22
SOURCEBUS     0            352.8 /_  167.4 =    -344.31 +j    76.901
SOURCEBUS     0            353.2 /_   50.2 =     226.14 +j    271.32

ELEMENT = "Transformer.SUB"
SOURCEBUS     1           367.72 /_  -71.3 =     118.17 +j   -348.22
SOURCEBUS     2            352.8 /_  167.4 =    -344.31 +j    76.901
SOURCEBUS     3            353.2 /_   50.2 =     226.14 +j    271.32
SOURCEBUS     0                0 /_    0.0 =          0 +j         0
------------
150           1           5729.4 /_   80.1 =     983.77 +j    5644.3
150           2           5770.9 /_  -42.8 =       4231 +j   -3924.6
150           3           5535.3 /_ -160.9 =    -5230.6 +j   -1811.4
150           0           92.958 /_   80.2 =     15.808 +j    91.604

ELEMENT = "Transformer.REG1A"
150           1           5729.4 /_  -99.9 =    -983.77 +j   -5644.3
150           2           5770.9 /_  137.2 =      -4231 +j    3924.6
150           3           5535.3 /_   19.1 =     5230.6 +j    1811.4
150           0           92.958 /_  -99.8 =    -15.808 +j   -91.604
------------
150R          1           5208.5 /_   80.1 =     894.33 +j    5131.2
150R          2           5246.3 /_  -42.8 =     3846.4 +j   -3567.8
150R          3           5032.1 /_ -160.9 =    -4755.1 +j   -1646.7
150R          0           84.507 /_   80.2 =     14.371 +j    83.276

ELEMENT = "Line.L115"
149           1           5208.5 /_  -99.9 =    -894.33 +j   -5131.2
149           2           5246.3 /_  137.2 =    -3846.4 +j    3567.8
149           3           5032.1 /_   19.1 =     4755.1 +j    1646.7
------------
1             1           5208.5 /_   80.1 =     894.33 +j    5131.2
1             2           5246.3 /_  -42.8 =     3846.4 +j   -3567.8
1             3           5032.1 /_ -160.9 =    -4755.1 +j   -1646.7

ELEMENT = "Line.L1"
1             2       0.00018635 /_  -67.5 =  7.1318E-005 +j -0.00017216
------------
2             2       3.638E-012 /_    0.0 =  3.638E-012 +j         0

ELEMENT = "Line.L2"
1             3        0.0011246 /_  170.8 =   -0.00111 +j 0.00018051
------------
3             3       0.00085032 /_   -9.2 =  0.0008393 +j -0.00013648

ELEMENT = "Line.L3"
1             1           5208.5 /_  -99.9 =    -894.33 +j   -5131.2
1             2           5246.3 /_  137.2 =    -3846.4 +j    3567.8
1             3           5032.1 /_   19.1 =     4755.1 +j    1646.7
------------
7             1           5208.5 /_   80.1 =     894.33 +j    5131.2
7             2           5246.3 /_  -42.8 =     3846.4 +j   -3567.8
7             3           5032.1 /_ -160.9 =    -4755.1 +j   -1646.7

ELEMENT = "Line.L4"
3             3       0.00021944 /_  170.8 =  -0.00021659 +j 3.5221E-005
------------
4             3      2.5724E-012 /_  135.0 =  -1.819E-012 +j 1.819E-012

ELEMENT = "Line.L5"
3             3       0.00063089 /_  170.8 =  -0.00062271 +j 0.00010126
------------
5             3        0.0002743 /_   -9.2 =  0.00027074 +j -4.4026E-005

ELEMENT = "Line.L6"
5             3        0.0002743 /_  170.8 =  -0.00027074 +j 4.4026E-005
------------
6             3       1.819E-012 /_  -90.0 =          0 +j -1.819E-012

ELEMENT = "Line.L7"
7             1           5208.5 /_  -99.9 =    -894.33 +j   -5131.2
7             2           5246.3 /_  137.2 =    -3846.4 +j    3567.8
7             3           5032.1 /_   19.1 =     4755.1 +j    1646.7
------------
8             1           5208.5 /_   80.1 =     894.33 +j    5131.2
8             2           5246.3 /_  -42.8 =     3846.4 +j   -3567.8
8             3           5032.1 /_ -160.9 =    -4755.1 +j   -1646.7

ELEMENT = "Line.L8"
8             2       0.00017891 /_  -67.9 =  6.7226E-005 +j -0.0001658
------------
12            2      2.0337E-012 /_  -26.6 =  1.819E-012 +j -9.0949E-013

ELEMENT = "Line.L9"
8             1       0.00099861 /_   53.0 =  0.00060083 +j 0.00079764
------------
9             1       0.00083147 /_ -127.0 =  -0.00050027 +j -0.00066413

ELEMENT = "Line.L10"
8             1           5208.5 /_  -99.9 =    -894.33 +j   -5131.2
8             2           5246.3 /_  137.2 =    -3846.4 +j    3567.8
8             3           5032.1 /_   19.1 =     4755.1 +j    1646.7
------------
13            1           5208.5 /_   80.1 =     894.34 +j    5131.2
13            2           5246.3 /_  -42.8 =     3846.4 +j   -3567.8
13            3           5032.1 /_ -160.9 =    -4755.1 +j   -1646.7

ELEMENT = "Line.L11"
9R            1       0.00075588 /_   53.0 =  0.00045479 +j 0.00060376
------------
14            1       0.00040858 /_ -127.0 =  -0.00024583 +j -0.00032635

ELEMENT = "Line.L12"
13            3       0.00061621 /_  165.8 =  -0.00059728 +j 0.00015156
------------
34            3       0.00052141 /_  -14.2 =  0.00050539 +j -0.00012825

ELEMENT = "Line.L13"
13            1           4651.9 /_ -100.1 =    -813.48 +j   -4580.3
13            2           4567.8 /_  136.1 =    -3288.6 +j    3170.1
13            3           4357.5 /_   20.2 =     4089.2 +j    1505.3
------------
18            1           4651.9 /_   79.9 =     813.48 +j    4580.3
18            2           4567.8 /_  -43.9 =     3288.6 +j   -3170.1
18            3           4357.5 /_ -159.8 =    -4089.2 +j   -1505.3

ELEMENT = "Line.L14"
14            1       0.00020429 /_   53.0 =  0.00012292 +j 0.00016318
------------
11            1      9.0949E-013 /_    0.0 =  9.0949E-013 +j         0

ELEMENT = "Line.L15"
14            1       0.00020429 /_   53.0 =  0.00012292 +j 0.00016318
------------
10            1      9.0949E-013 /_    0.0 =  9.0949E-013 +j         0

ELEMENT = "Line.L16"
15            3         0.000237 /_  165.8 =  -0.00022972 +j 5.8294E-005
------------
16            3      4.5475E-013 /_   90.0 =          0 +j 4.5475E-013

ELEMENT = "Line.L17"
15            3        0.0002212 /_  165.8 =  -0.00021441 +j 5.4408E-005
------------
17            3                0 /_    0.0 =          0 +j         0

ELEMENT = "Line.L18"
18            1      9.6506E-005 /_   50.4 =  6.1537E-005 +j 7.4341E-005
------------
19            1      5.4547E-005 /_ -129.6 =  -3.4782E-005 +j -4.2019E-005

ELEMENT = "Line.L19"
18            1           5179.1 /_ -100.0 =    -900.94 +j   -5100.1
18            2           5208.3 /_  136.9 =    -3804.8 +j    3556.7
18            3           4992.8 /_   19.0 =     4720.3 +j      1627
------------
21            1           5179.1 /_   80.0 =     900.94 +j    5100.1
21            2           5208.3 /_  -43.1 =     3804.8 +j   -3556.7
21            3           4992.8 /_ -161.0 =    -4720.3 +j     -1627

ELEMENT = "Line.L20"
19            1      5.4547E-005 /_   50.4 =  3.4782E-005 +j 4.2019E-005
------------
20            1      2.2737E-013 /_   90.0 =          0 +j 2.2737E-013

ELEMENT = "Line.L21"
21            2      1.1702E-005 /_ -133.1 =  -7.9909E-006 +j -8.5485E-006
------------
22            2      1.4211E-014 /_  180.0 =  -1.4211E-014 +j         0

ELEMENT = "Line.L22"
21            1      9.2282E-005 /_  -14.8 =  8.9233E-005 +j -2.3524E-005
21            2      4.9352E-005 /_ -136.5 =  -3.5793E-005 +j -3.3977E-005
21            3      9.8007E-005 /_  115.5 =  -4.2136E-005 +j 8.8487E-005
------------
23            1      8.3089E-005 /_  165.2 =  -8.0326E-005 +j 2.125E-005
23            2      4.1518E-005 /_   43.5 =  3.0111E-005 +j 2.8584E-005
23            3      8.9722E-005 /_  -64.7 =  3.8325E-005 +j -8.1124E-005

ELEMENT = "Line.L23"
23            3      1.1752E-005 /_  109.0 =  -3.8297E-006 +j 1.111E-005
------------
24            3      2.0097E-014 /_  135.0 =  -1.4211E-014 +j 1.4211E-014

ELEMENT = "Line.L24"
23            1      8.3089E-005 /_  -14.8 =  8.0326E-005 +j -2.125E-005
23            2      4.1518E-005 /_ -136.5 =  -3.0111E-005 +j -2.8584E-005
23            3      7.8051E-005 /_  116.2 =  -3.4496E-005 +j 7.0014E-005
------------
25            1      7.2977E-005 /_  165.1 =  -7.0528E-005 +j 1.8749E-005
25            2      3.2901E-005 /_   43.5 =  2.3862E-005 +j 2.2652E-005
25            3      6.8933E-005 /_  -63.9 =  3.0304E-005 +j -6.1915E-005

ELEMENT = "Line.L25"
25R           1      3.1246E-005 /_  -15.5 =  3.0106E-005 +j -8.3626E-006
25R           3      3.1028E-005 /_  114.8 =  -1.3E-005 +j 2.8173E-005
------------
26            1      2.0554E-005 /_  166.3 =  -1.9969E-005 +j 4.8671E-006
26            3      2.0539E-005 /_  -67.2 =  7.972E-006 +j -1.8929E-005

ELEMENT = "Line.L26"
25            1      3.8611E-005 /_  -14.3 =  3.7411E-005 +j -9.5499E-006
25            2      3.2901E-005 /_ -136.5 =  -2.3862E-005 +j -2.2652E-005
25            3       3.482E-005 /_  117.4 =  -1.6004E-005 +j 3.0924E-005
------------
28            1      3.1256E-005 /_  165.7 =  -3.0285E-005 +j 7.7309E-006
28            2      2.6634E-005 /_   43.5 =  1.9317E-005 +j 1.8337E-005
28            3      2.8187E-005 /_  -62.6 =  1.2955E-005 +j -2.5034E-005

ELEMENT = "Line.L27"
26            1      2.0554E-005 /_  -13.7 =  1.9969E-005 +j -4.8671E-006
26            3      8.2683E-006 /_  118.5 =  -3.9509E-006 +j 7.2633E-006
------------
27            1       1.219E-005 /_  170.0 =  -1.2004E-005 +j 2.1206E-006
27            3      1.2711E-013 /_  153.4 =  -1.1369E-013 +j 5.6843E-014

ELEMENT = "Line.L28"
26            3      1.2339E-005 /_  109.0 =  -4.0211E-006 +j 1.1666E-005
------------
31            3      7.0511E-006 /_  -71.0 =  2.2978E-006 +j -6.6662E-006

ELEMENT = "Line.L29"
27            1       1.219E-005 /_  -10.0 =  1.2004E-005 +j -2.1206E-006
------------
33            1      4.0194E-014 /_ -135.0 =  -2.8422E-014 +j -2.8422E-014

ELEMENT = "Line.L30"
28            1      3.1256E-005 /_  -14.3 =  3.0285E-005 +j -7.7309E-006
28            2      2.6634E-005 /_ -136.5 =  -1.9317E-005 +j -1.8337E-005
28            3      2.8187E-005 /_  117.4 =  -1.2955E-005 +j 2.5034E-005
------------
29            1      2.0225E-005 /_  165.7 =  -1.9596E-005 +j 5.0024E-006
29            2      1.7234E-005 /_   43.5 =  1.2499E-005 +j 1.1865E-005
29            3      1.8239E-005 /_  -62.6 =  8.3829E-006 +j -1.6198E-005

ELEMENT = "Line.L31"
29            1      2.0225E-005 /_  -14.3 =  1.9596E-005 +j -5.0024E-006
29            2      1.7234E-005 /_ -136.5 =  -1.2499E-005 +j -1.1865E-005
29            3      1.8239E-005 /_  117.4 =  -8.3829E-006 +j 1.6198E-005
------------
30            1      7.3544E-006 /_  165.7 =  -7.1259E-006 +j 1.819E-006
30            2      6.2669E-006 /_   43.5 =  4.5451E-006 +j 4.3146E-006
30            3      6.6323E-006 /_  -62.6 =  3.0483E-006 +j -5.8903E-006

ELEMENT = "Line.L32"
30            1      7.3544E-006 /_  -14.3 =  7.1259E-006 +j -1.819E-006
30            2      6.2669E-006 /_ -136.5 =  -4.5451E-006 +j -4.3146E-006
30            3      6.6323E-006 /_  117.4 =  -3.0483E-006 +j 5.8903E-006
------------
250           1      2.1645E-013 /_   66.8 =  8.5265E-014 +j 1.9895E-013
250           2      1.1457E-013 /_ -119.7 =  -5.6843E-014 +j -9.9476E-014
250           3      1.6078E-013 /_ -135.0 =  -1.1369E-013 +j -1.1369E-013

ELEMENT = "Line.L33"
31            3      7.0511E-006 /_  109.0 =  -2.2978E-006 +j 6.6662E-006
------------
32            3      3.1776E-014 /_  153.4 =  -2.8422E-014 +j 1.4211E-014

ELEMENT = "Line.L34"
34            3       0.00052141 /_  165.8 =  -0.00050539 +j 0.00012825
------------
15            3       0.00045821 /_  -14.2 =  0.00044413 +j -0.0001127

ELEMENT = "Line.L35"
35            1       0.00021815 /_   58.2 =  0.00011494 +j 0.00018541
35            2       0.00030456 /_  -76.4 =  7.1391E-005 +j -0.00029608
------------
36            1      5.7485E-005 /_ -129.1 =  -3.6284E-005 +j -4.4587E-005
36            2       0.00012553 /_  108.2 =  -3.9132E-005 +j 0.00011927

ELEMENT = "Line.L36"
35            1           527.15 /_   80.5 =      87.45 +j    519.85
35            2           644.91 /_  -36.8 =     516.24 +j   -386.52
35            3           642.71 /_ -169.1 =    -631.07 +j   -121.74
------------
40            1           527.15 /_  -99.5 =     -87.45 +j   -519.85
40            2           644.91 /_  143.2 =    -516.24 +j    386.52
40            3           642.71 /_   10.9 =     631.07 +j    121.74

ELEMENT = "Line.L37"
36            1      5.7485E-005 /_   50.9 =  3.6284E-005 +j 4.4587E-005
------------
37            1      4.6874E-013 /_ -104.0 =  -1.1369E-013 +j -4.5475E-013

ELEMENT = "Line.L38"
36            2       0.00012553 /_  -71.8 =  3.9132E-005 +j -0.00011927
------------
38            2      7.0951E-005 /_  108.2 =  -2.2118E-005 +j 6.7416E-005

ELEMENT = "Line.L39"
38            2      7.0951E-005 /_  -71.8 =  2.2118E-005 +j -6.7416E-005
------------
39            2      5.0842E-013 /_  -26.6 =  4.5475E-013 +j -2.2737E-013

ELEMENT = "Line.L40"
40            3      7.8099E-005 /_  162.8 =  -7.4614E-005 +j 2.3069E-005
------------
41            3      4.5475E-013 /_  180.0 =  -4.5475E-013 +j         0

ELEMENT = "Line.L41"
40            1           527.15 /_   80.5 =      87.45 +j    519.85
40            2           644.91 /_  -36.8 =     516.24 +j   -386.52
40            3           642.71 /_ -169.1 =    -631.07 +j   -121.74
------------
42            1           527.15 /_  -99.5 =     -87.45 +j   -519.85
42            2           644.91 /_  143.2 =    -516.24 +j    386.52
42            3           642.71 /_   10.9 =     631.07 +j    121.74

ELEMENT = "Line.L42"
42            2       0.00012522 /_  -70.4 =  4.21E-005 +j -0.00011793
------------
43            2      2.5421E-013 /_  -26.6 =  2.2737E-013 +j -1.1369E-013

ELEMENT = "Line.L43"
42            1           527.15 /_   80.5 =      87.45 +j    519.85
42            2           644.91 /_  -36.8 =     516.24 +j   -386.52
42            3           642.71 /_ -169.1 =    -631.07 +j   -121.74
------------
44            1           527.15 /_  -99.5 =     -87.45 +j   -519.85
44            2           644.91 /_  143.2 =    -516.24 +j    386.52
44            3           642.71 /_   10.9 =     631.07 +j    121.74

ELEMENT = "Line.L44"
44            1       0.00011848 /_   50.3 =  7.5751E-005 +j 9.1102E-005
------------
45            1      7.1089E-005 /_ -129.7 =  -4.545E-005 +j -5.4661E-005

ELEMENT = "Line.L45"
44            1           527.15 /_   80.5 =      87.45 +j    519.85
44            2           644.91 /_  -36.8 =     516.24 +j   -386.52
44            3           642.71 /_ -169.1 =    -631.07 +j   -121.74
------------
47            1           527.15 /_  -99.5 =     -87.45 +j   -519.85
47            2           644.91 /_  143.2 =    -516.24 +j    386.52
47            3           642.71 /_   10.9 =     631.07 +j    121.74

ELEMENT = "Line.L46"
45            1      7.1089E-005 /_   50.3 =  4.545E-005 +j 5.4661E-005
------------
46            1                0 /_    0.0 =          0 +j         0

ELEMENT = "Line.L47"
47            1      4.5533E-005 /_   30.0 =  3.9433E-005 +j 2.2767E-005
47            2      6.5502E-005 /_  -49.0 =  4.2991E-005 +j -4.942E-005
47            3      6.8345E-005 /_  156.8 =  -6.2798E-005 +j 2.697E-005
------------
48            1      4.1694E-012 /_ -115.9 =  -1.819E-012 +j -3.7517E-012
48            2      3.7014E-012 /_  169.4 =  -3.638E-012 +j 6.8212E-013
48            3      3.6663E-012 /_   60.3 =  1.819E-012 +j 3.1832E-012

ELEMENT = "Line.L48"
47            1           527.15 /_   80.5 =      87.45 +j    519.85
47            2           644.91 /_  -36.8 =     516.24 +j   -386.52
47            3           642.71 /_ -169.1 =    -631.07 +j   -121.74
------------
49            1           527.15 /_  -99.5 =     -87.45 +j   -519.85
49            2           644.91 /_  143.2 =    -516.24 +j    386.52
49            3           642.71 /_   10.9 =     631.07 +j    121.74

ELEMENT = "Line.L49"
49            1           527.15 /_   80.5 =      87.45 +j    519.85
49            2           644.91 /_  -36.8 =     516.24 +j   -386.52
49            3           642.71 /_ -169.1 =    -631.07 +j   -121.74
------------
50            1           527.15 /_  -99.5 =     -87.45 +j   -519.85
50            2            644.9 /_  143.2 =    -516.24 +j    386.52
50            3           642.71 /_   10.9 =     631.07 +j    121.74

ELEMENT = "Line.L50"
50            1           527.15 /_   80.5 =      87.45 +j    519.85
50            2            644.9 /_  -36.8 =     516.24 +j   -386.52
50            3           642.71 /_ -169.1 =    -631.07 +j   -121.74
------------
51            1           527.15 /_  -99.5 =     -87.45 +j   -519.85
51            2            644.9 /_  143.2 =    -516.24 +j    386.52
51            3           642.71 /_   10.9 =     631.07 +j    121.74

ELEMENT = "Line.L51"
51            1           527.15 /_   80.5 =      87.45 +j    519.85
51            2            644.9 /_  -36.8 =     516.24 +j   -386.52
51            3           642.71 /_ -169.1 =    -631.07 +j   -121.74
------------
151           1           527.15 /_  -99.5 =    -87.449 +j   -519.85
151           2            644.9 /_  143.2 =    -516.24 +j    386.52
151           3           642.71 /_   10.9 =     631.07 +j    121.74

ELEMENT = "Line.L52"
52            1           556.84 /_  -98.3 =    -80.851 +j   -550.94
52            2           685.03 /_  144.5 =     -557.8 +j    397.64
52            3           680.74 /_   12.0 =      665.9 +j    141.38
------------
53            1           556.84 /_   81.7 =     80.851 +j    550.94
53            2           685.03 /_  -35.5 =      557.8 +j   -397.65
53            3           680.74 /_ -168.0 =     -665.9 +j   -141.38

ELEMENT = "Line.L53"
53            1           556.84 /_  -98.3 =    -80.851 +j   -550.94
53            2           685.03 /_  144.5 =     -557.8 +j    397.65
53            3           680.74 /_   12.0 =      665.9 +j    141.38
------------
54            1           556.84 /_   81.7 =     80.851 +j    550.94
54            2           685.03 /_  -35.5 =      557.8 +j   -397.65
54            3           680.74 /_ -168.0 =     -665.9 +j   -141.38

ELEMENT = "Line.L54"
54            1       0.00044568 /_   63.4 =  0.00019963 +j 0.00039847
54            2       0.00053692 /_  -72.0 =  0.00016567 +j -0.00051072
54            3       0.00044033 /_  162.0 =  -0.00041875 +j 0.00013616
------------
55            1       0.00022284 /_ -116.6 =  -9.9816E-005 +j -0.00019924
55            2       0.00026846 /_  108.0 =  -8.2833E-005 +j 0.00025536
55            3       0.00022017 /_  -18.0 =  0.00020938 +j -6.8078E-005

ELEMENT = "Line.L55"
54            1           556.84 /_  -98.3 =    -80.851 +j   -550.94
54            2           685.03 /_  144.5 =     -557.8 +j    397.65
54            3           680.74 /_   12.0 =      665.9 +j    141.38
------------
57            1           556.84 /_   81.7 =     80.851 +j    550.94
57            2           685.03 /_  -35.5 =      557.8 +j   -397.65
57            3           680.74 /_ -168.0 =     -665.9 +j   -141.38

ELEMENT = "Line.L56"
55            1       0.00022284 /_   63.4 =  9.9816E-005 +j 0.00019924
55            2       0.00026846 /_  -72.0 =  8.2833E-005 +j -0.00025536
55            3       0.00022017 /_  162.0 =  -0.00020938 +j 6.8078E-005
------------
56            1      3.0014E-012 /_  127.3 =  -1.819E-012 +j 2.3874E-012
56            2      3.9119E-012 /_ -144.5 =  -3.1832E-012 +j -2.2737E-012
56            3      9.0949E-013 /_  -90.0 =          0 +j -9.0949E-013

ELEMENT = "Line.L57"
57            2       0.00027806 /_  -69.2 =  9.8688E-005 +j -0.00025996
------------
58            2       0.00013903 /_  110.8 =  -4.9344E-005 +j 0.00012998

ELEMENT = "Line.L58"
57            1           556.84 /_  -98.3 =    -80.851 +j   -550.94
57            2           685.03 /_  144.5 =     -557.8 +j    397.65
57            3           680.74 /_   12.0 =      665.9 +j    141.38
------------
60            1           556.84 /_   81.7 =     80.852 +j    550.94
60            2           685.03 /_  -35.5 =      557.8 +j   -397.65
60            3           680.74 /_ -168.0 =     -665.9 +j   -141.38

ELEMENT = "Line.L59"
58            2       0.00013903 /_  -69.2 =  4.9344E-005 +j -0.00012998
------------
59            2      1.0168E-012 /_ -153.4 =  -9.0949E-013 +j -4.5475E-013

ELEMENT = "Line.L60"
60            1       0.00040203 /_   58.2 =  0.00021186 +j 0.00034168
60            2       0.00042111 /_  -75.7 =  0.00010417 +j -0.00040802
60            3       0.00036982 /_  168.8 =  -0.00036282 +j 7.1571E-005
------------
61            1      2.9638E-006 /_   54.7 =  1.7136E-006 +j 2.4182E-006
61            2      3.3971E-006 /_  -66.6 =  1.348E-006 +j -3.1182E-006
61            3      3.2924E-006 /_  167.2 =  -3.2105E-006 +j 7.296E-007

ELEMENT = "Line.L61"
60            1         0.009898 /_   54.4 =  0.0057573 +j 0.0080513
60            2         0.011276 /_  -69.3 =  0.0039839 +j -0.010549
60            3         0.011256 /_  165.2 =  -0.010884 +j 0.0028695
------------
62            1        0.0082754 /_ -125.6 =  -0.0048135 +j -0.0067314
62            2        0.0094277 /_  110.7 =  -0.0033308 +j 0.0088198
62            3        0.0094105 /_  -14.8 =  0.0090996 +j -0.0023991

ELEMENT = "Line.L62"
62            1        0.0082754 /_   54.4 =  0.0048135 +j 0.0067314
62            2        0.0094277 /_  -69.3 =  0.0033308 +j -0.0088198
62            3        0.0094105 /_  165.2 =  -0.0090996 +j 0.0023991
------------
63            1        0.0071395 /_ -125.6 =  -0.0041528 +j -0.0058075
63            2        0.0081337 /_  110.7 =  -0.0028737 +j 0.0076092
63            3        0.0081189 /_  -14.8 =  0.0078506 +j -0.0020698

ELEMENT = "Line.L63"
63            1        0.0071395 /_   54.4 =  0.0041528 +j 0.0058075
63            2        0.0081337 /_  -69.3 =  0.0028737 +j -0.0076092
63            3        0.0081189 /_  165.2 =  -0.0078506 +j 0.0020698
------------
64            1        0.0048679 /_ -125.6 =  -0.0028315 +j -0.0039596
64            2        0.0055457 /_  110.7 =  -0.0019593 +j 0.0051881
64            3        0.0055356 /_  -14.8 =  0.0053527 +j -0.0014112

ELEMENT = "Line.L64"
64            1        0.0048679 /_   54.4 =  0.0028315 +j 0.0039596
64            2        0.0055457 /_  -69.3 =  0.0019593 +j -0.0051881
64            3        0.0055356 /_  165.2 =  -0.0053527 +j 0.0014112
------------
65            1        0.0021094 /_ -125.6 =  -0.001227 +j -0.0017158
65            2        0.0024032 /_  110.7 =  -0.00084903 +j 0.0022482
65            3        0.0023988 /_  -14.8 =  0.0023195 +j -0.00061153

ELEMENT = "Line.L65"
65            1        0.0021094 /_   54.4 =   0.001227 +j 0.0017158
65            2        0.0024032 /_  -69.3 =  0.00084903 +j -0.0022482
65            3        0.0023988 /_  165.2 =  -0.0023195 +j 0.00061153
------------
66            1      1.4779E-012 /_  157.4 =  -1.3642E-012 +j 5.6843E-013
66            2      1.6396E-012 /_  146.3 =  -1.3642E-012 +j 9.0949E-013
66            3                0 /_    0.0 =          0 +j         0

ELEMENT = "Line.L66"
67            1        0.0004956 /_   53.8 =  0.00029251 +j 0.00040007
------------
68            1       0.00040339 /_ -126.2 =  -0.00023809 +j -0.00032564

ELEMENT = "Line.L67"
67            1           23.548 /_   53.7 =      13.94 +j    18.978
67            2           26.627 /_  -69.9 =     9.1427 +j   -25.008
67            3           26.575 /_  165.2 =    -25.694 +j    6.7838
------------
72            1           23.548 /_ -126.3 =     -13.94 +j   -18.978
72            2           26.627 /_  110.1 =    -9.1426 +j    25.008
72            3           26.574 /_  -14.8 =     25.694 +j   -6.7837

ELEMENT = "Line.L68"
67            1           527.15 /_  -99.5 =    -87.447 +j   -519.84
67            2            644.9 /_  143.2 =    -516.24 +j    386.52
67            3            642.7 /_   10.9 =     631.07 +j    121.74
------------
97            1           527.15 /_   80.5 =     87.447 +j    519.84
97            2            644.9 /_  -36.8 =     516.24 +j   -386.52
97            3            642.7 /_ -169.1 =    -631.07 +j   -121.74

ELEMENT = "Line.L69"
68            1       0.00040339 /_   53.8 =  0.00023809 +j 0.00032564
------------
69            1       0.00027661 /_ -126.2 =  -0.00016326 +j -0.00022329

ELEMENT = "Line.L70"
69            1       0.00027661 /_   53.8 =  0.00016326 +j 0.00022329
------------
70            1       0.00012678 /_ -126.2 =  -7.4828E-005 +j -0.00010234

ELEMENT = "Line.L71"
70            1       0.00012678 /_   53.8 =  7.4828E-005 +j 0.00010234
------------
71            1       1.875E-012 /_ -104.0 =  -4.5475E-013 +j -1.819E-012

ELEMENT = "Line.L72"
72            3       0.00053403 /_  165.4 =  -0.0005169 +j 0.00013419
------------
73            3       0.00039076 /_  -14.6 =  0.00037822 +j -9.8188E-005

ELEMENT = "Line.L73"
72            1           23.548 /_   53.7 =      13.94 +j    18.978
72            2           26.627 /_  -69.9 =     9.1426 +j   -25.008
72            3           26.574 /_  165.2 =    -25.693 +j    6.7836
------------
76            1           23.548 /_ -126.3 =     -13.94 +j   -18.978
76            2           26.627 /_  110.1 =    -9.1425 +j    25.008
76            3           26.574 /_  -14.8 =     25.693 +j   -6.7835

ELEMENT = "Line.L74"
73            3       0.00039076 /_  165.4 =  -0.00037822 +j 9.8188E-005
------------
74            3        0.0002084 /_  -14.6 =  0.00020172 +j -5.2367E-005

ELEMENT = "Line.L75"
74            3        0.0002084 /_  165.4 =  -0.00020172 +j 5.2367E-005
------------
75            3                0 /_    0.0 =          0 +j         0

ELEMENT = "Line.L76"
76            1           18.858 /_   53.7 =     11.166 +j    15.197
76            2           21.321 /_  -69.9 =     7.3115 +j   -20.028
76            3           21.277 /_  165.2 =    -20.569 +j    5.4431
------------
77            1           18.858 /_ -126.3 =    -11.165 +j   -15.197
77            2           21.321 /_  110.1 =    -7.3114 +j    20.028
77            3           21.277 /_  -14.8 =     20.569 +j    -5.443

ELEMENT = "Line.L77"
76            1           4.6895 /_   53.7 =     2.7741 +j     3.781
76            2           5.3057 /_  -69.8 =      1.831 +j   -4.9797
76            3           5.2967 /_  165.3 =    -5.1243 +j    1.3405
------------
86            1           4.6891 /_ -126.3 =    -2.7738 +j   -3.7807
86            2           5.3051 /_  110.2 =    -1.8308 +j    4.9792
86            3           5.2961 /_  -14.7 =     5.1237 +j   -1.3403

ELEMENT = "Line.L78"
77            1           18.858 /_   53.7 =     11.165 +j    15.197
77            2           21.321 /_  -69.9 =     7.3114 +j   -20.028
77            3           21.277 /_  165.2 =    -20.569 +j     5.443
------------
78            1           18.858 /_ -126.3 =    -11.165 +j   -15.197
78            2            21.32 /_  110.1 =    -7.3113 +j    20.028
78            3           21.277 /_  -14.8 =     20.569 +j    -5.443

ELEMENT = "Line.L79"
78            1       0.00016118 /_   43.3 =  0.00011723 +j 0.00011061
78            2       0.00016737 /_  -65.9 =  6.8425E-005 +j -0.00015274
78            3       0.00018908 /_  169.7 =  -0.00018604 +j 3.3796E-005
------------
79            1      7.5033E-012 /_   90.0 =          0 +j 7.5033E-012
79            2      2.2737E-013 /_   90.0 =          0 +j 2.2737E-013
79            3      4.2901E-012 /_  -32.0 =  3.638E-012 +j -2.2737E-012

ELEMENT = "Line.L80"
78            1           18.858 /_   53.7 =     11.165 +j    15.197
78            2            21.32 /_  -69.9 =     7.3113 +j   -20.028
78            3           21.276 /_  165.2 =    -20.568 +j     5.443
------------
80            1           18.857 /_ -126.3 =    -11.165 +j   -15.197
80            2            21.32 /_  110.1 =    -7.3111 +j    20.027
80            3           21.276 /_  -14.8 =     20.568 +j   -5.4429

ELEMENT = "Line.L81"
80            1           18.857 /_   53.7 =     11.165 +j    15.197
80            2            21.32 /_  -69.9 =     7.3111 +j   -20.027
80            3           21.276 /_  165.2 =    -20.568 +j    5.4429
------------
81            1           18.857 /_ -126.3 =    -11.165 +j   -15.196
81            2            21.32 /_  110.1 =    -7.3111 +j    20.027
81            3           21.276 /_  -14.8 =     20.568 +j   -5.4429

ELEMENT = "Line.L82"
81            1           18.857 /_   53.7 =     11.165 +j    15.196
81            2            21.32 /_  -69.9 =     7.3111 +j   -20.027
81            3           21.275 /_  165.2 =    -20.567 +j    5.4427
------------
82            1           18.857 /_ -126.3 =    -11.165 +j   -15.196
82            2            21.32 /_  110.1 =     -7.311 +j    20.027
82            3           21.275 /_  -14.8 =     20.567 +j   -5.4427

ELEMENT = "Line.L83"
81            3       0.00060271 /_  165.3 =  -0.00058285 +j 0.00015344
------------
84            3       0.00024894 /_  -14.7 =  0.00024074 +j -6.3377E-005

ELEMENT = "Line.L84"
82            1           18.857 /_   53.7 =     11.165 +j    15.196
82            2            21.32 /_  -69.9 =      7.311 +j   -20.027
82            3           21.275 /_  165.2 =    -20.567 +j    5.4427
------------
83            1           18.857 /_ -126.3 =    -11.165 +j   -15.196
83            2           21.319 /_  110.1 =    -7.3109 +j    20.027
83            3           21.275 /_  -14.8 =     20.567 +j   -5.4426

ELEMENT = "Line.L85"
84            3       0.00024894 /_  165.3 =  -0.00024074 +j 6.3377E-005
------------
85            3      9.0949E-013 /_  180.0 =  -9.0949E-013 +j         0

ELEMENT = "Line.L86"
86            1           4.6891 /_   53.7 =     2.7738 +j    3.7807
...