test/data/dist/ShortCircuitCases/ieee123_Curr_Seq.Txt

SYMMETRICAL COMPONENT CURRENTS BY CIRCUIT ELEMENT (first 3 phases)

Element              Term      I1         I2         %I2/I1    I0         %I0/I1   %Normal %Emergency

"VSOURCE.SOURCE" ...   1      352.88       10.776     3.05  4.6267E-013     0.00      0.00     0.00
   -                   2      352.88       10.776     3.05  4.6267E-013     0.00      0.00     0.00
"TRANSFORMER.SUB" ..   1      352.88       10.776     3.05  6.3553E-014     0.00    377.93   277.15
   -                   2      5598.6       170.97     3.05       27.82     0.50      0.00     0.00
"TRANSFORMER.REG1A"    1      5598.6       170.97     3.05       27.82     0.50    746.90   547.73
   -                   2      5089.7       155.43     3.05      25.291     0.50      0.00     0.00
"LINE.L115" ........   1      5089.7       155.43     3.05      25.291     0.50   1295.75   863.83
   -                   2      5089.7       155.43     3.05      25.291     0.50      0.00     0.00
"LINE.L1" ..........   1  0.00018741            0     0.00           0     0.00      0.00     0.00
   -                   2  9.0949E-013            0     0.00           0     0.00      0.00     0.00
"LINE.L2" ..........   1   0.0011345            0     0.00           0     0.00      0.00     0.00
   -                   2  0.00085782            0     0.00           0     0.00      0.00     0.00
"LINE.L3" ..........   1      5089.7       155.43     3.05      25.291     0.50   1295.75   863.83
   -                   2      5089.7       155.43     3.05      25.291     0.50      0.00     0.00
"LINE.L4" ..........   1  0.00022137            0     0.00           0     0.00      0.00     0.00
   -                   2  2.5724E-012            0     0.00           0     0.00      0.00     0.00
"LINE.L5" ..........   1  0.00063645            0     0.00           0     0.00      0.00     0.00
   -                   2  0.00027672            0     0.00           0     0.00      0.00     0.00
"LINE.L6" ..........   1  0.00027672            0     0.00           0     0.00      0.00     0.00
   -                   2  4.0674E-012            0     0.00           0     0.00      0.00     0.00
"LINE.L7" ..........   1      5089.7       155.43     3.05      25.291     0.50   1295.75   863.83
   -                   2      5089.7       155.43     3.05      25.291     0.50      0.00     0.00
"LINE.L8" ..........   1  0.00018113            0     0.00           0     0.00      0.00     0.00
   -                   2  9.0949E-013            0     0.00           0     0.00      0.00     0.00
"LINE.L9" ..........   1   0.0010157            0     0.00           0     0.00      0.00     0.00
   -                   2  0.00084573            0     0.00           0     0.00      0.00     0.00
"LINE.L10" .........   1      5126.6       155.43     3.03      25.291     0.49   1304.29   869.52
   -                   2      5126.6       155.43     3.03      25.291     0.49      0.00     0.00
"LINE.L11" .........   1  0.00076884            0     0.00           0     0.00      0.00     0.00
   -                   2  0.00041559            0     0.00           0     0.00      0.00     0.00
"LINE.L12" .........   1  0.00062814            0     0.00           0     0.00      0.00     0.00
   -                   2   0.0005315            0     0.00           0     0.00      0.00     0.00
"LINE.L13" .........   1      4566.6       213.15     4.67      29.157     0.64   1179.97   786.64
   -                   2      4566.6       213.15     4.67      29.157     0.64      0.00     0.00
"LINE.L14" .........   1   0.0002078            0     0.00           0     0.00      0.00     0.00
   -                   2  9.0949E-013            0     0.00           0     0.00      0.00     0.00
"LINE.L15" .........   1   0.0002078            0     0.00           0     0.00      0.00     0.00
   -                   2  9.0949E-013            0     0.00           0     0.00      0.00     0.00
"LINE.L16" .........   1  0.00024159            0     0.00           0     0.00      0.00     0.00
   -                   2           0            0     0.00           0     0.00      0.00     0.00
"LINE.L17" .........   1  0.00022548            0     0.00           0     0.00      0.00     0.00
   -                   2  4.5475E-013            0     0.00           0     0.00      0.00     0.00
"LINE.L18" .........   1  0.00010172            0     0.00           0     0.00      0.00     0.00
   -                   2  5.7492E-005            0     0.00           0     0.00      0.00     0.00
"LINE.L19" .........   1      5354.1        160.4     3.00      25.403     0.47   1359.98   906.65
   -                   2      5354.1        160.4     3.00      25.403     0.47      0.00     0.00
"LINE.L20" .........   1  5.7492E-005            0     0.00           0     0.00      0.00     0.00
   -                   2  1.1369E-013            0     0.00           0     0.00      0.00     0.00
"LINE.L21" .........   1  1.2369E-005            0     0.00           0     0.00      0.00     0.00
   -                   2  7.1054E-015            0     0.00           0     0.00      0.00     0.00
"LINE.L22" .........   1      97.148   3.1175E-005     0.00  1.4766E-005     0.00     24.29    16.19
   -                   2      97.148   3.0348E-005     0.00  1.4832E-005     0.00      0.00     0.00
"LINE.L23" .........   1  1.3012E-005            0     0.00           0     0.00      0.00     0.00
   -                   2  2.1316E-014            0     0.00           0     0.00      0.00     0.00
"LINE.L24" .........   1      97.148   2.7515E-005     0.00  1.0692E-005     0.00     24.29    16.19
   -                   2      97.148   2.649E-005     0.00  1.0808E-005     0.00      0.00     0.00
"LINE.L25" .........   1  3.5136E-005            0     0.00           0     0.00      0.00     0.00
   -                   2  2.3062E-005            0     0.00           0     0.00      0.00     0.00
"LINE.L26" .........   1      97.148   1.2118E-005     0.00  5.496E-006     0.00     24.29    16.19
   -                   2      97.148   1.1637E-005     0.00  5.3522E-006     0.00      0.00     0.00
"LINE.L27" .........   1  2.3062E-005            0     0.00           0     0.00      0.00     0.00
   -                   2  1.362E-005            0     0.00           0     0.00      0.00     0.00
"LINE.L28" .........   1  1.4477E-005            0     0.00           0     0.00      0.00     0.00
   -                   2  8.2727E-006            0     0.00           0     0.00      0.00     0.00
"LINE.L29" .........   1  1.362E-005            0     0.00           0     0.00      0.00     0.00
   -                   2           0            0     0.00           0     0.00      0.00     0.00
"LINE.L30" .........   1  3.3451E-005   4.4028E-006    13.16  8.7746E-007     2.62      0.00     0.00
   -                   2  2.1645E-005   2.8489E-006    13.16  5.6777E-007     2.62      0.00     0.00
"LINE.L31" .........   1  2.1645E-005   2.8489E-006    13.16  5.6777E-007     2.62      0.00     0.00
   -                   2  7.8708E-006   1.036E-006    13.16  2.0646E-007     2.62      0.00     0.00
"LINE.L32" .........   1  7.8708E-006   1.036E-006    13.16  2.0646E-007     2.62      0.00     0.00
   -                   2  1.0267E-013   1.8819E-013   183.30  1.8948E-014    18.46      0.00     0.00
"LINE.L33" .........   1  8.2727E-006            0     0.00           0     0.00      0.00     0.00
   -                   2  5.6843E-014            0     0.00           0     0.00      0.00     0.00
"LINE.L34" .........   1   0.0005315            0     0.00           0     0.00      0.00     0.00
   -                   2  0.00046708            0     0.00           0     0.00      0.00     0.00
"LINE.L35" .........   1  0.00023555            0     0.00           0     0.00      0.00     0.00
   -                   2  6.2064E-005            0     0.00           0     0.00      0.00     0.00
"LINE.L36" .........   1       790.7       81.476    10.30      10.434     1.32    213.76   142.51
   -                   2       790.7       81.476    10.30      10.434     1.32      0.00     0.00
"LINE.L37" .........   1  6.2064E-005            0     0.00           0     0.00      0.00     0.00
   -                   2           0            0     0.00           0     0.00      0.00     0.00
"LINE.L38" .........   1  0.00013357            0     0.00           0     0.00      0.00     0.00
   -                   2  7.5494E-005            0     0.00           0     0.00      0.00     0.00
"LINE.L39" .........   1  7.5494E-005            0     0.00           0     0.00      0.00     0.00
   -                   2  4.5475E-013            0     0.00           0     0.00      0.00     0.00
"LINE.L40" .........   1  8.2176E-005            0     0.00           0     0.00      0.00     0.00
   -                   2  3.2155E-013            0     0.00           0     0.00      0.00     0.00
"LINE.L41" .........   1       790.7       81.476    10.30      10.434     1.32    213.76   142.51
   -                   2       790.7       81.476    10.30      10.434     1.32      0.00     0.00
"LINE.L42" .........   1  0.00013547            0     0.00           0     0.00      0.00     0.00
   -                   2  3.2155E-013            0     0.00           0     0.00      0.00     0.00
"LINE.L43" .........   1       790.7       81.476    10.30      10.434     1.32    213.76   142.51
   -                   2       790.7       81.476    10.30      10.434     1.32      0.00     0.00
"LINE.L44" .........   1  0.00013374            0     0.00           0     0.00      0.00     0.00
   -                   2  8.0242E-005            0     0.00           0     0.00      0.00     0.00
"LINE.L45" .........   1       790.7       81.476    10.30      10.434     1.32    213.76   142.51
   -                   2       790.7       81.476    10.30      10.434     1.32      0.00     0.00
"LINE.L46" .........   1  8.0242E-005            0     0.00           0     0.00      0.00     0.00
   -                   2  6.4311E-013            0     0.00           0     0.00      0.00     0.00
"LINE.L47" .........   1       194.3   4.5979E-005     0.00  0.00016739     0.00     48.57    32.38
   -                   2       194.3   5.3299E-005     0.00  0.00016946     0.00      0.00     0.00
"LINE.L48" .........   1      672.49       81.476    12.12      10.434     1.55    182.19   121.46
   -                   2      672.49       81.476    12.12      10.434     1.55      0.00     0.00
"LINE.L49" .........   1      672.49       81.476    12.12      10.434     1.55    182.19   121.46
   -                   2      672.49       81.476    12.12      10.434     1.55      0.00     0.00
"LINE.L50" .........   1      672.49       81.476    12.12      10.434     1.55    182.19   121.46
   -                   2      672.49       81.476    12.12      10.434     1.55      0.00     0.00
"LINE.L51" .........   1      672.49       81.476    12.12      10.434     1.55    182.19   121.46
   -                   2      672.49       81.476    12.12      10.434     1.55      0.00     0.00
"LINE.L52" .........   1      684.16       88.346    12.91      10.618     1.55    193.26   128.84
   -                   2      684.16       88.346    12.91      10.618     1.55      0.00     0.00
"LINE.L53" .........   1      684.16       88.346    12.91      10.618     1.55    193.26   128.84
   -                   2      684.16       88.346    12.91      10.618     1.55      0.00     0.00
"LINE.L54" .........   1  0.00048738   8.4903E-005    17.42  2.0264E-005     4.16      0.00     0.00
   -                   2  0.00024369   4.2451E-005    17.42  1.0132E-005     4.16      0.00     0.00
"LINE.L55" .........   1      684.16       88.346    12.91      10.618     1.55    193.26   128.84
   -                   2      684.16       88.346    12.91      10.618     1.55      0.00     0.00
"LINE.L56" .........   1  0.00024369   4.2451E-005    17.42  1.0132E-005     4.16      0.00     0.00
   -                   2  1.4078E-012   5.9181E-013    42.04  2.541E-012   180.49      0.00     0.00
"LINE.L57" .........   1  0.00029011            0     0.00           0     0.00      0.00     0.00
   -                   2  0.00014506            0     0.00           0     0.00      0.00     0.00
"LINE.L58" .........   1      684.16       88.346    12.91      10.618     1.55    193.26   128.84
   -                   2      684.16       88.346    12.91      10.618     1.55      0.00     0.00
"LINE.L59" .........   1  0.00014506            0     0.00           0     0.00      0.00     0.00
   -                   2  4.5475E-013            0     0.00           0     0.00      0.00     0.00
"LINE.L60" .........   1      97.149   7.3841E-005     0.00  0.00017163     0.00     24.29    16.19
   -                   2      97.149   2.0767E-005     0.00  0.00017224     0.00      0.00     0.00
"LINE.L61" .........   1    0.011671   0.00088544     7.59  0.00036674     3.14      0.00     0.00
   -                   2    0.009758   0.00074028     7.59  0.00030662     3.14      0.00     0.00
"LINE.L62" .........   1    0.009758   0.00074028     7.59  0.00030662     3.14      0.00     0.00
   -                   2   0.0084186   0.00063867     7.59  0.00026453     3.14      0.00     0.00
"LINE.L63" .........   1   0.0084186   0.00063867     7.59  0.00026453     3.14      0.00     0.00
   -                   2     0.00574   0.00043546     7.59  0.00018036     3.14      0.00     0.00
"LINE.L64" .........   1     0.00574   0.00043546     7.59  0.00018036     3.14      0.00     0.00
   -                   2   0.0024873    0.0001887     7.59  7.8157E-005     3.14      0.00     0.00
"LINE.L65" .........   1   0.0024873    0.0001887     7.59  7.8157E-005     3.14      0.00     0.00
   -                   2  1.4145E-013   5.2792E-013   373.21  8.0567E-013   569.56      0.00     0.00
"LINE.L66" .........   1  0.00056078            0     0.00           0     0.00      0.00     0.00
   -                   2  0.00045645            0     0.00           0     0.00      0.00     0.00
"LINE.L67" .........   1      291.54       2.0776     0.71     0.78439     0.27     73.46    48.97
   -                   2      291.54       2.0776     0.71     0.78439     0.27      0.00     0.00
"LINE.L68" .........   1      601.65       81.476    13.54      10.434     1.73    161.78   107.85
   -                   2      601.65       81.476    13.54      10.434     1.73      0.00     0.00
"LINE.L69" .........   1  0.00045645            0     0.00           0     0.00      0.00     0.00
   -                   2  0.00031299            0     0.00           0     0.00      0.00     0.00
"LINE.L70" .........   1  0.00031299            0     0.00           0     0.00      0.00     0.00
   -                   2  0.00014346            0     0.00           0     0.00      0.00     0.00
"LINE.L71" .........   1  0.00014346            0     0.00           0     0.00      0.00     0.00
   -                   2           0            0     0.00           0     0.00      0.00     0.00
"LINE.L72" .........   1  0.00056834            0     0.00           0     0.00      0.00     0.00
   -                   2  0.00041586            0     0.00           0     0.00      0.00     0.00
"LINE.L73" .........   1      291.54       2.0776     0.71     0.78421     0.27     73.46    48.97
   -                   2      291.54       2.0776     0.71     0.78421     0.27      0.00     0.00
"LINE.L74" .........   1  0.00041586            0     0.00           0     0.00      0.00     0.00
   -                   2  0.00022179            0     0.00           0     0.00      0.00     0.00
"LINE.L75" .........   1  0.00022179            0     0.00           0     0.00      0.00     0.00
   -                   2  1.0168E-012            0     0.00           0     0.00      0.00     0.00
"LINE.L76" .........   1      99.633       1.6713     1.68     0.64593     0.65     25.32    16.88
   -                   2      99.633       1.6713     1.68     0.64593     0.65      0.00     0.00
"LINE.L77" .........   1      194.23      0.40715     0.21     0.14154     0.07     48.67    32.44
   -                   2      194.23      0.40708     0.21     0.14154     0.07      0.00     0.00
"LINE.L78" .........   1      99.633       1.6713     1.68     0.64593     0.65     25.32    16.88
   -                   2      99.633       1.6713     1.68     0.64593     0.65      0.00     0.00
"LINE.L79" .........   1      97.149   1.6523E-005     0.00  0.00024952     0.00     24.29    16.19
   -                   2      97.149   2.8975E-005     0.00  0.00024715     0.00      0.00     0.00
"LINE.L80" .........   1      22.727       1.6713     7.35     0.64603     2.84      5.96     3.98
   -                   2      22.727       1.6713     7.35     0.64603     2.84      0.00     0.00
"LINE.L81" .........   1      22.727       1.6713     7.35     0.64603     2.84      5.96     3.98
   -                   2      22.727       1.6713     7.35     0.64604     2.84      0.00     0.00
"LINE.L82" .........   1      22.727       1.6713     7.35     0.64583     2.84      5.96     3.98
   -                   2      22.727       1.6713     7.35     0.64584     2.84      0.00     0.00
"LINE.L83" .........   1  0.00064604            0     0.00           0     0.00      0.00     0.00
   -                   2  0.00026684            0     0.00           0     0.00      0.00     0.00
"LINE.L84" .........   1      22.727       1.6713     7.35     0.64584     2.84      5.96     3.98
   -                   2      22.726       1.6714     7.35     0.64584     2.84      0.00     0.00
"LINE.L85" .........   1  0.00026684            0     0.00           0     0.00      0.00     0.00
   -                   2  6.4311E-013            0     0.00           0     0.00      0.00     0.00
"LINE.L86" .........   1      194.23      0.40708     0.21     0.14154     0.07     48.67    32.44
   -                   2      194.23      0.40709     0.21     0.14154     0.07      0.00     0.00
"LINE.L87" .........   1      5.4676            0     0.00           0     0.00      1.37     0.91
   -                   2      5.4675            0     0.00           0     0.00      0.00     0.00
"LINE.L88" .........   1      194.08       2.0901     1.08      1.8576     0.96     48.57    32.38
   -                   2      194.08         2.09     1.08      1.8576     0.96      0.00     0.00
"LINE.L89" .........   1      6.0596            0     0.00           0     0.00      1.51     1.01
   -                   2      6.0594            0     0.00           0     0.00      0.00     0.00
"LINE.L90" .........   1      194.12       1.9261     0.99      1.9261     0.99     48.57    32.38
   -                   2      194.12        1.926     0.99      1.9261     0.99      0.00     0.00
"LINE.L91" .........   1      5.7783            0     0.00           0     0.00      1.44     0.96
   -                   2      5.7782            0     0.00           0     0.00      0.00     0.00
"LINE.L92" .........   1       194.3   9.8611E-005     0.00  0.00065158     0.00     48.57    32.38
   -                   2       194.3   0.00010878     0.00   0.0006491     0.00      0.00     0.00
"LINE.L93" .........   1  0.00014994            0     0.00           0     0.00      0.00     0.00
   -                   2           0            0     0.00           0     0.00      0.00     0.00
"LINE.L94" .........   1       194.3   0.00012189     0.00  0.00069585     0.00     48.57    32.38
   -                   2       194.3   0.00013107     0.00  0.00069259     0.00      0.00     0.00
"LINE.L95" .........   1  0.00012116            0     0.00           0     0.00      0.00     0.00
   -                   2           0            0     0.00           0     0.00      0.00     0.00
"LINE.L96" .........   1      97.149   0.00023114     0.00  0.00018433     0.00     24.29    16.19
   -                   2      97.149   0.00019684     0.00  0.00018894     0.00      0.00     0.00
"LINE.L97" .........   1      97.149   0.00019684     0.00  0.00018894     0.00     24.29    16.19
   -                   2      97.149   0.00012839     0.00  0.00019821     0.00      0.00     0.00
"LINE.L98" .........   1      97.149   0.00012839     0.00  0.00019821     0.00     24.29    16.19
   -                   2      97.149   9.1442E-005     0.00   0.0002033     0.00      0.00     0.00
"LINE.L99" .........   1  0.00065808   0.00010096    15.34  1.3883E-005     2.11      0.00     0.00
   -                   2  1.3594E-012   6.4441E-013    47.40  1.6947E-013    12.47      0.00     0.00
"LINE.L118" ........   1      630.01       81.476    12.93      10.434     1.66    169.99   113.33
   -                   2      630.01       81.476    12.93      10.434     1.66      0.00     0.00
"LINE.L100" ........   1  0.00064781            0     0.00           0     0.00      0.00     0.00
   -                   2   0.0005312            0     0.00           0     0.00      0.00     0.00
"LINE.L101" ........   1      630.01       81.476    12.93      10.434     1.66    169.99   113.33
   -                   2      630.01       81.476    12.93      10.434     1.66      0.00     0.00
"LINE.L102" ........   1   0.0005312            0     0.00           0     0.00      0.00     0.00
   -                   2  0.00036277            0     0.00           0     0.00      0.00     0.00
"LINE.L103" ........   1  0.00036277            0     0.00           0     0.00      0.00     0.00
   -                   2  5.0842E-013            0     0.00           0     0.00      0.00     0.00
"LINE.L104" ........   1  0.00041126            0     0.00           0     0.00      0.00     0.00
   -                   2  0.00029559            0     0.00           0     0.00      0.00     0.00
"LINE.L105" ........   1      630.01       81.476    12.93      10.434     1.66    169.99   113.33
   -                   2      630.01       81.476    12.93      10.434     1.66      0.00     0.00
"LINE.L106" ........   1  0.00029559            0     0.00           0     0.00      0.00     0.00
   -                   2  1.0168E-012            0     0.00           0     0.00      0.00     0.00
"LINE.L107" ........   1   0.0010366            0     0.00           0     0.00      0.00     0.00
   -                   2  0.00083382            0     0.00           0     0.00      0.00     0.00
"LINE.L108" ........   1      672.49       81.476    12.12      10.434     1.55    182.19   121.46
   -                   2      672.49       81.476    12.12      10.434     1.55      0.00     0.00
"LINE.L109" ........   1  0.00083382            0     0.00           0     0.00      0.00     0.00
   -                   2  0.00069861            0     0.00           0     0.00      0.00     0.00
"LINE.L110" ........   1  0.00025916            0     0.00           0     0.00      0.00     0.00
   -                   2           0            0     0.00           0     0.00      0.00     0.00
"LINE.L111" ........   1  0.00043945            0     0.00           0     0.00      0.00     0.00
   -                   2  0.00038311            0     0.00           0     0.00      0.00     0.00
"LINE.L112" ........   1  0.00038311            0     0.00           0     0.00      0.00     0.00
   -                   2  0.00014648            0     0.00           0     0.00      0.00     0.00
"LINE.L113" ........   1  0.00014648            0     0.00           0     0.00      0.00     0.00
   -                   2  9.3749E-013            0     0.00           0     0.00      0.00     0.00
"LINE.L114" ........   1       790.7       81.476    10.30      10.434     1.32    213.76   142.51
   -                   2       790.7       81.476    10.30      10.434     1.32      0.00     0.00
"LINE.L116" ........   1      684.16       88.346    12.91      10.618     1.55    193.26   128.84
   -                   2      684.16       88.346    12.91      10.618     1.55      0.00     0.00
"LINE.L117" ........   1      595.97       80.315    13.48      9.6532     1.62    167.81   111.87
   -                   2      595.98       80.315    13.48      9.6532     1.62      0.00     0.00
"LINE.SW1" .........   1      5089.7       155.43     3.05      25.291     0.50   1295.75   863.83
   -                   2      5089.7       155.43     3.05      25.291     0.50      0.00     0.00
"LINE.SW2" .........   1      684.16       88.346    12.91      10.618     1.55    193.26   128.84
   -                   2      684.16       88.346    12.91      10.618     1.55      0.00     0.00
"LINE.SW3" .........   1       790.7       81.476    10.30      10.434     1.32    213.76   142.51
   -                   2       790.7       81.476    10.30      10.434     1.32      0.00     0.00
"LINE.SW4" .........   1      655.57       88.347    13.48      10.618     1.62    184.59   123.06
   -                   2      655.57       88.347    13.48      10.618     1.62      0.00     0.00
"LINE.SW5" .........   1      630.01       81.476    12.93      10.434     1.66    169.99   113.33
   -                   2      630.01       81.476    12.93      10.434     1.66      0.00     0.00
"LINE.SW6" .........   1  3.5057E-006   1.959E-007     5.59  1.1107E-008     0.32      0.00     0.00
   -                   2  3.5057E-006   1.959E-007     5.59  1.1107E-008     0.32      0.00     0.00
"LINE.SW7" .........   1      672.49       81.476    12.12      10.434     1.55    182.19   121.46
   -                   2      672.49       81.476    12.12      10.434     1.55      0.00     0.00
"TRANSFORMER.XFM1" .   1  3.4913E-006   2.5932E-007     7.43  5.5102E-008     1.58      0.00     0.00
   -                   2  1.019E-013   1.1616E-013   113.99  1.3565E-013   133.12      0.00     0.00
"CAPACITOR.C83" ....   1      22.726       1.6714     7.35     0.64584     2.84      0.00     0.00
   -                   2      22.726       1.6714     7.35     0.64584     2.84      0.00     0.00
"CAPACITOR.C88A" ...   1      5.4675            0     0.00           0     0.00      0.00     0.00
   -                   2      5.4675            0     0.00           0     0.00      0.00     0.00
"CAPACITOR.C90B" ...   1      6.0594            0     0.00           0     0.00      0.00     0.00
   -                   2      6.0594            0     0.00           0     0.00      0.00     0.00
"CAPACITOR.C92C" ...   1      5.7782            0     0.00           0     0.00      0.00     0.00
   -                   2      5.7782            0     0.00           0     0.00      0.00     0.00
"TRANSFORMER.REG2A"    1  0.00084573            0     0.00           0     0.00      0.00     0.00
   -                   2  0.00076884            0     0.00           0     0.00      0.00     0.00
"TRANSFORMER.REG3A"    1  3.865E-005            0     0.00           0     0.00      0.00     0.00
   -                   2  3.5136E-005            0     0.00           0     0.00      0.00     0.00
"TRANSFORMER.REG4A"    1      571.29            0     0.00           0     0.00     62.37    45.74
   -                   2      519.35            0     0.00           0     0.00      0.00     0.00
"TRANSFORMER.REG3C"    1  4.0047E-005            0     0.00           0     0.00      0.00     0.00
   -                   2  3.6406E-005            0     0.00           0     0.00      0.00     0.00
"TRANSFORMER.REG4B"    1      664.47            0     0.00           0     0.00     72.55    53.20
   -                   2      604.06            0     0.00           0     0.00      0.00     0.00
"TRANSFORMER.REG4C"    1      738.37            0     0.00           0     0.00     80.62    59.12
   -                   2      671.25            0     0.00           0     0.00      0.00     0.00
"PVSYSTEM.1" .......   1      97.148   2.1999E-008     0.00  2.1999E-008     0.00      0.00     0.00
"PVSYSTEM.2" .......   1      136.01   3.0799E-008     0.00  3.0799E-008     0.00      0.00     0.00
"PVSYSTEM.3" .......   1      97.148   2.1999E-008     0.00  2.1999E-008     0.00      0.00     0.00
"PVSYSTEM.4" .......   1       194.3   4.3998E-008     0.00  4.3998E-008     0.00      0.00     0.00
"PVSYSTEM.5" .......   1      97.148   2.1999E-008     0.00  2.1999E-008     0.00      0.00     0.00
"PVSYSTEM.6" .......   1      97.148   2.1999E-008     0.00  2.1999E-008     0.00      0.00     0.00
"PVSYSTEM.7" .......   1       194.3   4.3998E-008     0.00  4.3998E-008     0.00      0.00     0.00
"PVSYSTEM.8" .......   1      97.148   2.1999E-008     0.00  2.1999E-008     0.00      0.00     0.00
"PVSYSTEM.9" .......   1      97.148   2.1999E-008     0.00  2.1999E-008     0.00      0.00     0.00
"FAULT.TEST" .......   1      5446.5        160.4     2.95      25.403     0.47      0.00     0.00
   -                   2      5446.5        160.4     2.95      25.403     0.47      0.00     0.00
